<?xml version="1.0" encoding="UTF-8"?>

<!-- generated on Mon Nov 18 14:42:38 2019 by Eclipse SUMO duarouter Version 1.3.1
<configuration xmlns:xsi="http://www.w3.org/2001/XMLSchema-instance" xsi:noNamespaceSchemaLocation="http://sumo.dlr.de/xsd/duarouterConfiguration.xsd">

    <input>
        <net-file value="douglas.net.xml"/>
        <route-files value="trips.trips.xml"/>
    </input>

    <output>
        <output-file value="douglas.rou.xml"/>
        <alternatives-output value="douglas.rou.alt.xml"/>
    </output>

    <time>
        <begin value="0"/>
        <end value="3600"/>
    </time>

    <report>
        <no-warnings value="true"/>
        <ignore-errors value="true"/>
        <no-step-log value="true"/>
    </report>

</configuration>
-->

<routes xmlns:xsi="http://www.w3.org/2001/XMLSchema-instance" xsi:noNamespaceSchemaLocation="http://sumo.dlr.de/xsd/routes_file.xsd">
    <vehicle id="0" depart="0.00">
        <route edges="3si 1o"/>
    </vehicle>
    <vehicle id="1" depart="1.00">
        <route edges="1o"/>
    </vehicle>
    <vehicle id="2" depart="2.00">
        <route edges="3si 1o"/>
    </vehicle>
    <vehicle id="4" depart="4.00">
        <route edges="4fi 4si 1o"/>
    </vehicle>
    <vehicle id="8" depart="8.00">
        <route edges="1fi 1si 2o 2fo"/>
    </vehicle>
    <vehicle id="10" depart="10.00">
        <route edges="4o 4fo"/>
    </vehicle>
    <vehicle id="11" depart="11.00">
        <route edges="1o 1fo"/>
    </vehicle>
    <vehicle id="12" depart="12.00">
        <route edges="4fi 4si 2o 2fo"/>
    </vehicle>
    <vehicle id="17" depart="17.00">
        <route edges="1fi 1si"/>
    </vehicle>
    <vehicle id="22" depart="22.00">
        <route edges="1si 3o 3fo"/>
    </vehicle>
    <vehicle id="23" depart="23.00">
        <route edges="2fi 2si 3o"/>
    </vehicle>
    <vehicle id="25" depart="25.00">
        <route edges="3si 1o"/>
    </vehicle>
    <vehicle id="26" depart="26.00">
        <route edges="2fi 2si 3o"/>
    </vehicle>
    <vehicle id="27" depart="27.00">
        <route edges="1o"/>
    </vehicle>
    <vehicle id="30" depart="30.00">
        <route edges="3si 2o"/>
    </vehicle>
    <vehicle id="31" depart="31.00">
        <route edges="4o"/>
    </vehicle>
    <vehicle id="33" depart="33.00">
        <route edges="4si 3o"/>
    </vehicle>
    <vehicle id="34" depart="34.00">
        <route edges="2si 1o 1fo"/>
    </vehicle>
    <vehicle id="36" depart="36.00">
        <route edges="4fi 4si 3o 3fo"/>
    </vehicle>
    <vehicle id="39" depart="39.00">
        <route edges="4si 3o"/>
    </vehicle>
    <vehicle id="42" depart="42.00">
        <route edges="2si 4o 4fo"/>
    </vehicle>
    <vehicle id="46" depart="46.00">
        <route edges="4o 4fo"/>
    </vehicle>
    <vehicle id="50" depart="50.00">
        <route edges="3fi 3si"/>
    </vehicle>
    <vehicle id="51" depart="51.00">
        <route edges="2fi 2si 3o"/>
    </vehicle>
    <vehicle id="53" depart="53.00">
        <route edges="4fi 4si 3o 3fo"/>
    </vehicle>
    <vehicle id="54" depart="54.00">
        <route edges="3si 1o"/>
    </vehicle>
    <vehicle id="55" depart="55.00">
        <route edges="4fi 4si 2o 2fo"/>
    </vehicle>
    <vehicle id="56" depart="56.00">
        <route edges="4o 4fo"/>
    </vehicle>
    <vehicle id="58" depart="58.00">
        <route edges="3fi 3si 2o 2fo"/>
    </vehicle>
    <vehicle id="59" depart="59.00">
        <route edges="2si 3o 3fo"/>
    </vehicle>
    <vehicle id="60" depart="60.00">
        <route edges="3si 2o 2fo"/>
    </vehicle>
    <vehicle id="61" depart="61.00">
        <route edges="3fi 3si 1o 1fo"/>
    </vehicle>
    <vehicle id="65" depart="65.00">
        <route edges="2si 3o"/>
    </vehicle>
    <vehicle id="67" depart="67.00">
        <route edges="4si 3o 3fo"/>
    </vehicle>
    <vehicle id="77" depart="77.00">
        <route edges="2si 3o"/>
    </vehicle>
    <vehicle id="78" depart="78.00">
        <route edges="1fi 1si"/>
    </vehicle>
    <vehicle id="82" depart="82.00">
        <route edges="1o"/>
    </vehicle>
    <vehicle id="84" depart="84.00">
        <route edges="4o 4fo"/>
    </vehicle>
    <vehicle id="87" depart="87.00">
        <route edges="1si 4o"/>
    </vehicle>
    <vehicle id="88" depart="88.00">
        <route edges="1fi 1si 4o 4fo"/>
    </vehicle>
    <vehicle id="90" depart="90.00">
        <route edges="4si 3o 3fo"/>
    </vehicle>
    <vehicle id="91" depart="91.00">
        <route edges="3o 3fo"/>
    </vehicle>
    <vehicle id="94" depart="94.00">
        <route edges="4fi 4si 2o 2fo"/>
    </vehicle>
    <vehicle id="95" depart="95.00">
        <route edges="4fi 4si 1o"/>
    </vehicle>
    <vehicle id="99" depart="99.00">
        <route edges="2fi 2si 3o 3fo"/>
    </vehicle>
    <vehicle id="100" depart="100.00">
        <route edges="3si 2o"/>
    </vehicle>
    <vehicle id="102" depart="102.00">
        <route edges="1fi 1si 2o 2fo"/>
    </vehicle>
    <vehicle id="103" depart="103.00">
        <route edges="4si 3o"/>
    </vehicle>
    <vehicle id="104" depart="104.00">
        <route edges="3si 4o 4fo"/>
    </vehicle>
    <vehicle id="108" depart="108.00">
        <route edges="1si 3o 3fo"/>
    </vehicle>
    <vehicle id="112" depart="112.00">
        <route edges="4si"/>
    </vehicle>
    <vehicle id="113" depart="113.00">
        <route edges="4fi 4si 1o"/>
    </vehicle>
    <vehicle id="114" depart="114.00">
        <route edges="1fi 1si 4o 4fo"/>
    </vehicle>
    <vehicle id="118" depart="118.00">
        <route edges="2si 4o 4fo"/>
    </vehicle>
    <vehicle id="119" depart="119.00">
        <route edges="3si 1o 1fo"/>
    </vehicle>
    <vehicle id="122" depart="122.00">
        <route edges="2fi 2si 1o"/>
    </vehicle>
    <vehicle id="123" depart="123.00">
        <route edges="1fi 1si 4o"/>
    </vehicle>
    <vehicle id="124" depart="124.00">
        <route edges="4si 1o"/>
    </vehicle>
    <vehicle id="127" depart="127.00">
        <route edges="1fi 1si 4o 4fo"/>
    </vehicle>
    <vehicle id="128" depart="128.00">
        <route edges="4fi 4si 3o"/>
    </vehicle>
    <vehicle id="131" depart="131.00">
        <route edges="3si 2o"/>
    </vehicle>
    <vehicle id="136" depart="136.00">
        <route edges="2si 4o"/>
    </vehicle>
    <vehicle id="145" depart="145.00">
        <route edges="4fi 4si 3o"/>
    </vehicle>
    <vehicle id="146" depart="146.00">
        <route edges="3si 1o"/>
    </vehicle>
    <vehicle id="147" depart="147.00">
        <route edges="2si"/>
    </vehicle>
    <vehicle id="149" depart="149.00">
        <route edges="4o"/>
    </vehicle>
    <vehicle id="151" depart="151.00">
        <route edges="4si"/>
    </vehicle>
    <vehicle id="153" depart="153.00">
        <route edges="3si 1o"/>
    </vehicle>
    <vehicle id="155" depart="155.00">
        <route edges="2si 3o 3fo"/>
    </vehicle>
    <vehicle id="156" depart="156.00">
        <route edges="2si 4o"/>
    </vehicle>
    <vehicle id="157" depart="157.00">
        <route edges="1o 1fo"/>
    </vehicle>
    <vehicle id="162" depart="162.00">
        <route edges="1fi 1si 2o 2fo"/>
    </vehicle>
    <vehicle id="163" depart="163.00">
        <route edges="2fi 2si 1o 1fo"/>
    </vehicle>
    <vehicle id="164" depart="164.00">
        <route edges="1si 3o 3fo"/>
    </vehicle>
    <vehicle id="169" depart="169.00">
        <route edges="4si 2o 2fo"/>
    </vehicle>
    <vehicle id="175" depart="175.00">
        <route edges="1fi 1si"/>
    </vehicle>
    <vehicle id="177" depart="177.00">
        <route edges="1o"/>
    </vehicle>
    <vehicle id="179" depart="179.00">
        <route edges="1si 3o 3fo"/>
    </vehicle>
    <vehicle id="183" depart="183.00">
        <route edges="4fi 4si 2o"/>
    </vehicle>
    <vehicle id="184" depart="184.00">
        <route edges="2si 3o"/>
    </vehicle>
    <vehicle id="187" depart="187.00">
        <route edges="1fi 1si 4o 4fo"/>
    </vehicle>
    <vehicle id="190" depart="190.00">
        <route edges="2si"/>
    </vehicle>
    <vehicle id="191" depart="191.00">
        <route edges="4si 2o"/>
    </vehicle>
    <vehicle id="193" depart="193.00">
        <route edges="1si 2o"/>
    </vehicle>
    <vehicle id="196" depart="196.00">
        <route edges="2fi 2si"/>
    </vehicle>
    <vehicle id="197" depart="197.00">
        <route edges="1si 4o 4fo"/>
    </vehicle>
    <vehicle id="198" depart="198.00">
        <route edges="4o 4fo"/>
    </vehicle>
    <vehicle id="200" depart="200.00">
        <route edges="1si 3o"/>
    </vehicle>
    <vehicle id="201" depart="201.00">
        <route edges="3si 2o 2fo"/>
    </vehicle>
    <vehicle id="202" depart="202.00">
        <route edges="1fi 1si 2o"/>
    </vehicle>
    <vehicle id="205" depart="205.00">
        <route edges="3si"/>
    </vehicle>
    <vehicle id="206" depart="206.00">
        <route edges="4si 3o"/>
    </vehicle>
    <vehicle id="208" depart="208.00">
        <route edges="1fi 1si 4o"/>
    </vehicle>
    <vehicle id="209" depart="209.00">
        <route edges="2si 1o 1fo"/>
    </vehicle>
    <vehicle id="211" depart="211.00">
        <route edges="4fi 4si 1o 1fo"/>
    </vehicle>
    <vehicle id="214" depart="214.00">
        <route edges="3si 1o"/>
    </vehicle>
    <vehicle id="216" depart="216.00">
        <route edges="4si 1o"/>
    </vehicle>
    <vehicle id="218" depart="218.00">
        <route edges="1si 4o 4fo"/>
    </vehicle>
    <vehicle id="219" depart="219.00">
        <route edges="4fi 4si"/>
    </vehicle>
    <vehicle id="220" depart="220.00">
        <route edges="4fi 4si 3o 3fo"/>
    </vehicle>
    <vehicle id="221" depart="221.00">
        <route edges="1o 1fo"/>
    </vehicle>
    <vehicle id="222" depart="222.00">
        <route edges="2si 1o 1fo"/>
    </vehicle>
    <vehicle id="227" depart="227.00">
        <route edges="3si 4o"/>
    </vehicle>
    <vehicle id="228" depart="228.00">
        <route edges="2si 1o 1fo"/>
    </vehicle>
    <vehicle id="229" depart="229.00">
        <route edges="2fi 2si 3o 3fo"/>
    </vehicle>
    <vehicle id="230" depart="230.00">
        <route edges="2si"/>
    </vehicle>
    <vehicle id="232" depart="232.00">
        <route edges="1fi 1si 3o 3fo"/>
    </vehicle>
    <vehicle id="235" depart="235.00">
        <route edges="2si 4o 4fo"/>
    </vehicle>
    <vehicle id="239" depart="239.00">
        <route edges="2fi 2si 4o 4fo"/>
    </vehicle>
    <vehicle id="243" depart="243.00">
        <route edges="3fi 3si 1o"/>
    </vehicle>
    <vehicle id="246" depart="246.00">
        <route edges="2fi 2si 4o"/>
    </vehicle>
    <vehicle id="247" depart="247.00">
        <route edges="1si 4o"/>
    </vehicle>
    <vehicle id="249" depart="249.00">
        <route edges="1si 3o"/>
    </vehicle>
    <vehicle id="252" depart="252.00">
        <route edges="2si 4o"/>
    </vehicle>
    <vehicle id="259" depart="259.00">
        <route edges="4si 3o"/>
    </vehicle>
    <vehicle id="260" depart="260.00">
        <route edges="1si 3o 3fo"/>
    </vehicle>
    <vehicle id="261" depart="261.00">
        <route edges="2fi 2si 1o 1fo"/>
    </vehicle>
    <vehicle id="265" depart="265.00">
        <route edges="1si 3o 3fo"/>
    </vehicle>
    <vehicle id="266" depart="266.00">
        <route edges="1si 2o"/>
    </vehicle>
    <vehicle id="267" depart="267.00">
        <route edges="3si 2o 2fo"/>
    </vehicle>
    <vehicle id="277" depart="277.00">
        <route edges="3si 2o 2fo"/>
    </vehicle>
    <vehicle id="278" depart="278.00">
        <route edges="3fi 3si 2o 2fo"/>
    </vehicle>
    <vehicle id="279" depart="279.00">
        <route edges="4o 4fo"/>
    </vehicle>
    <vehicle id="280" depart="280.00">
        <route edges="3fi 3si"/>
    </vehicle>
    <vehicle id="281" depart="281.00">
        <route edges="3fi 3si 1o 1fo"/>
    </vehicle>
    <vehicle id="282" depart="282.00">
        <route edges="2fi 2si 1o 1fo"/>
    </vehicle>
    <vehicle id="285" depart="285.00">
        <route edges="4fi 4si 1o 1fo"/>
    </vehicle>
    <vehicle id="289" depart="289.00">
        <route edges="3fi 3si 1o"/>
    </vehicle>
    <vehicle id="290" depart="290.00">
        <route edges="2fi 2si 3o 3fo"/>
    </vehicle>
    <vehicle id="292" depart="292.00">
        <route edges="1si"/>
    </vehicle>
    <vehicle id="293" depart="293.00">
        <route edges="4si 1o 1fo"/>
    </vehicle>
    <vehicle id="294" depart="294.00">
        <route edges="1o 1fo"/>
    </vehicle>
    <vehicle id="296" depart="296.00">
        <route edges="3fi 3si"/>
    </vehicle>
    <vehicle id="297" depart="297.00">
        <route edges="1si 3o"/>
    </vehicle>
    <vehicle id="299" depart="299.00">
        <route edges="2si 4o"/>
    </vehicle>
    <vehicle id="300" depart="300.00">
        <route edges="2fi 2si"/>
    </vehicle>
    <vehicle id="305" depart="305.00">
        <route edges="4si 3o"/>
    </vehicle>
    <vehicle id="306" depart="306.00">
        <route edges="1si 3o 3fo"/>
    </vehicle>
    <vehicle id="307" depart="307.00">
        <route edges="3fi 3si 1o"/>
    </vehicle>
    <vehicle id="311" depart="311.00">
        <route edges="2si 1o 1fo"/>
    </vehicle>
    <vehicle id="313" depart="313.00">
        <route edges="3fi 3si"/>
    </vehicle>
    <vehicle id="314" depart="314.00">
        <route edges="4si 1o 1fo"/>
    </vehicle>
    <vehicle id="316" depart="316.00">
        <route edges="4si 3o 3fo"/>
    </vehicle>
    <vehicle id="317" depart="317.00">
        <route edges="2fi 2si 3o"/>
    </vehicle>
    <vehicle id="328" depart="328.00">
        <route edges="4si 1o"/>
    </vehicle>
    <vehicle id="332" depart="332.00">
        <route edges="3fi 3si 1o"/>
    </vehicle>
    <vehicle id="333" depart="333.00">
        <route edges="3fi 3si 1o 1fo"/>
    </vehicle>
    <vehicle id="336" depart="336.00">
        <route edges="1si 3o"/>
    </vehicle>
    <vehicle id="340" depart="340.00">
        <route edges="2fi 2si 3o 3fo"/>
    </vehicle>
    <vehicle id="342" depart="342.00">
        <route edges="4si 3o"/>
    </vehicle>
    <vehicle id="344" depart="344.00">
        <route edges="1si 3o 3fo"/>
    </vehicle>
    <vehicle id="347" depart="347.00">
        <route edges="3si 2o"/>
    </vehicle>
    <vehicle id="349" depart="349.00">
        <route edges="3fi 3si 1o 1fo"/>
    </vehicle>
    <vehicle id="355" depart="355.00">
        <route edges="3fi 3si 4o 4fo"/>
    </vehicle>
    <vehicle id="361" depart="361.00">
        <route edges="3si 2o"/>
    </vehicle>
    <vehicle id="363" depart="363.00">
        <route edges="3si 2o"/>
    </vehicle>
    <vehicle id="364" depart="364.00">
        <route edges="1fi 1si"/>
    </vehicle>
    <vehicle id="365" depart="365.00">
        <route edges="4fi 4si 3o"/>
    </vehicle>
    <vehicle id="369" depart="369.00">
        <route edges="3si 2o 2fo"/>
    </vehicle>
    <vehicle id="372" depart="372.00">
        <route edges="2si 3o"/>
    </vehicle>
    <vehicle id="373" depart="373.00">
        <route edges="3si 1o 1fo"/>
    </vehicle>
    <vehicle id="375" depart="375.00">
        <route edges="2si"/>
    </vehicle>
    <vehicle id="376" depart="376.00">
        <route edges="4o"/>
    </vehicle>
    <vehicle id="377" depart="377.00">
        <route edges="2si 4o 4fo"/>
    </vehicle>
    <vehicle id="378" depart="378.00">
        <route edges="1si"/>
    </vehicle>
    <vehicle id="383" depart="383.00">
        <route edges="4si 2o"/>
    </vehicle>
    <vehicle id="384" depart="384.00">
        <route edges="3si 1o"/>
    </vehicle>
    <vehicle id="386" depart="386.00">
        <route edges="4si"/>
    </vehicle>
    <vehicle id="388" depart="388.00">
        <route edges="1o 1fo"/>
    </vehicle>
    <vehicle id="389" depart="389.00">
        <route edges="2si 4o"/>
    </vehicle>
    <vehicle id="390" depart="390.00">
        <route edges="2si 1o 1fo"/>
    </vehicle>
    <vehicle id="391" depart="391.00">
        <route edges="2si 1o 1fo"/>
    </vehicle>
    <vehicle id="393" depart="393.00">
        <route edges="3si"/>
    </vehicle>
    <vehicle id="395" depart="395.00">
        <route edges="1si"/>
    </vehicle>
    <vehicle id="396" depart="396.00">
        <route edges="3si 4o"/>
    </vehicle>
    <vehicle id="397" depart="397.00">
        <route edges="1fi 1si"/>
    </vehicle>
    <vehicle id="399" depart="399.00">
        <route edges="2o"/>
    </vehicle>
    <vehicle id="400" depart="400.00">
        <route edges="4si 1o 1fo"/>
    </vehicle>
    <vehicle id="401" depart="401.00">
        <route edges="1si 4o 4fo"/>
    </vehicle>
    <vehicle id="402" depart="402.00">
        <route edges="3fi 3si 2o"/>
    </vehicle>
    <vehicle id="403" depart="403.00">
        <route edges="1o 1fo"/>
    </vehicle>
    <vehicle id="407" depart="407.00">
        <route edges="1fi 1si"/>
    </vehicle>
    <vehicle id="409" depart="409.00">
        <route edges="4fi 4si 1o 1fo"/>
    </vehicle>
    <vehicle id="412" depart="412.00">
        <route edges="2si 4o"/>
    </vehicle>
    <vehicle id="414" depart="414.00">
        <route edges="2si 1o 1fo"/>
    </vehicle>
    <vehicle id="416" depart="416.00">
        <route edges="2si 1o 1fo"/>
    </vehicle>
    <vehicle id="424" depart="424.00">
        <route edges="2si 4o 4fo"/>
    </vehicle>
    <vehicle id="425" depart="425.00">
        <route edges="2o 2fo"/>
    </vehicle>
    <vehicle id="426" depart="426.00">
        <route edges="4fi 4si 1o 1fo"/>
    </vehicle>
    <vehicle id="433" depart="433.00">
        <route edges="1si"/>
    </vehicle>
    <vehicle id="435" depart="435.00">
        <route edges="4si 3o"/>
    </vehicle>
    <vehicle id="436" depart="436.00">
        <route edges="4fi 4si 2o 2fo"/>
    </vehicle>
    <vehicle id="439" depart="439.00">
        <route edges="1fi 1si 2o 2fo"/>
    </vehicle>
    <vehicle id="441" depart="441.00">
        <route edges="2fi 2si 3o 3fo"/>
    </vehicle>
    <vehicle id="442" depart="442.00">
        <route edges="1fi 1si 4o 4fo"/>
    </vehicle>
    <vehicle id="443" depart="443.00">
        <route edges="4si"/>
    </vehicle>
    <vehicle id="445" depart="445.00">
        <route edges="3si 4o"/>
    </vehicle>
    <vehicle id="450" depart="450.00">
        <route edges="1fi 1si"/>
    </vehicle>
    <vehicle id="451" depart="451.00">
        <route edges="3fi 3si"/>
    </vehicle>
    <vehicle id="457" depart="457.00">
        <route edges="2si 3o 3fo"/>
    </vehicle>
    <vehicle id="460" depart="460.00">
        <route edges="2o 2fo"/>
    </vehicle>
    <vehicle id="461" depart="461.00">
        <route edges="1si 3o"/>
    </vehicle>
    <vehicle id="465" depart="465.00">
        <route edges="1fi 1si"/>
    </vehicle>
    <vehicle id="466" depart="466.00">
        <route edges="4fi 4si 3o 3fo"/>
    </vehicle>
    <vehicle id="467" depart="467.00">
        <route edges="1si"/>
    </vehicle>
    <vehicle id="469" depart="469.00">
        <route edges="3fi 3si 1o 1fo"/>
    </vehicle>
    <vehicle id="470" depart="470.00">
        <route edges="4si 1o 1fo"/>
    </vehicle>
    <vehicle id="471" depart="471.00">
        <route edges="4o"/>
    </vehicle>
    <vehicle id="477" depart="477.00">
        <route edges="3si 4o"/>
    </vehicle>
    <vehicle id="478" depart="478.00">
        <route edges="4si"/>
    </vehicle>
    <vehicle id="479" depart="479.00">
        <route edges="4fi 4si 2o"/>
    </vehicle>
    <vehicle id="482" depart="482.00">
        <route edges="1fi 1si 3o"/>
    </vehicle>
    <vehicle id="485" depart="485.00">
        <route edges="3si"/>
    </vehicle>
    <vehicle id="486" depart="486.00">
        <route edges="2fi 2si"/>
    </vehicle>
    <vehicle id="487" depart="487.00">
        <route edges="1fi 1si 3o 3fo"/>
    </vehicle>
    <vehicle id="488" depart="488.00">
        <route edges="1fi 1si 3o 3fo"/>
    </vehicle>
    <vehicle id="489" depart="489.00">
        <route edges="1si"/>
    </vehicle>
    <vehicle id="490" depart="490.00">
        <route edges="4fi 4si 3o 3fo"/>
    </vehicle>
    <vehicle id="493" depart="493.00">
        <route edges="1fi 1si 2o 2fo"/>
    </vehicle>
    <vehicle id="494" depart="494.00">
        <route edges="2si 1o 1fo"/>
    </vehicle>
    <vehicle id="498" depart="498.00">
        <route edges="4si 1o 1fo"/>
    </vehicle>
    <vehicle id="499" depart="499.00">
        <route edges="4fi 4si 1o 1fo"/>
    </vehicle>
    <vehicle id="500" depart="500.00">
        <route edges="4o"/>
    </vehicle>
    <vehicle id="502" depart="502.00">
        <route edges="2fi 2si 1o 1fo"/>
    </vehicle>
    <vehicle id="509" depart="509.00">
        <route edges="4o"/>
    </vehicle>
    <vehicle id="515" depart="515.00">
        <route edges="3si 2o 2fo"/>
    </vehicle>
    <vehicle id="523" depart="523.00">
        <route edges="4si"/>
    </vehicle>
    <vehicle id="524" depart="524.00">
        <route edges="4si 1o 1fo"/>
    </vehicle>
    <vehicle id="525" depart="525.00">
        <route edges="1fi 1si"/>
    </vehicle>
    <vehicle id="526" depart="526.00">
        <route edges="4si"/>
    </vehicle>
    <vehicle id="527" depart="527.00">
        <route edges="4si 3o"/>
    </vehicle>
    <vehicle id="529" depart="529.00">
        <route edges="3fi 3si 2o"/>
    </vehicle>
    <vehicle id="532" depart="532.00">
        <route edges="4fi 4si 3o"/>
    </vehicle>
    <vehicle id="535" depart="535.00">
        <route edges="2si 3o"/>
    </vehicle>
    <vehicle id="536" depart="536.00">
        <route edges="2o 2fo"/>
    </vehicle>
    <vehicle id="537" depart="537.00">
        <route edges="2o 2fo"/>
    </vehicle>
    <vehicle id="539" depart="539.00">
        <route edges="3si"/>
    </vehicle>
    <vehicle id="542" depart="542.00">
        <route edges="3si 1o 1fo"/>
    </vehicle>
    <vehicle id="543" depart="543.00">
        <route edges="4si 3o"/>
    </vehicle>
    <vehicle id="544" depart="544.00">
        <route edges="2si 3o"/>
    </vehicle>
    <vehicle id="546" depart="546.00">
        <route edges="4fi 4si 1o 1fo"/>
    </vehicle>
    <vehicle id="548" depart="548.00">
        <route edges="3fi 3si 4o"/>
    </vehicle>
    <vehicle id="549" depart="549.00">
        <route edges="2fi 2si"/>
    </vehicle>
    <vehicle id="551" depart="551.00">
        <route edges="2fi 2si 1o"/>
    </vehicle>
    <vehicle id="552" depart="552.00">
        <route edges="1o"/>
    </vehicle>
    <vehicle id="554" depart="554.00">
        <route edges="4si 1o 1fo"/>
    </vehicle>
    <vehicle id="556" depart="556.00">
        <route edges="3si 4o 4fo"/>
    </vehicle>
    <vehicle id="557" depart="557.00">
        <route edges="1si 2o"/>
    </vehicle>
    <vehicle id="560" depart="560.00">
        <route edges="4si 1o 1fo"/>
    </vehicle>
    <vehicle id="561" depart="561.00">
        <route edges="3fi 3si 1o"/>
    </vehicle>
    <vehicle id="562" depart="562.00">
        <route edges="2fi 2si 3o 3fo"/>
    </vehicle>
    <vehicle id="563" depart="563.00">
        <route edges="4o 4fo"/>
    </vehicle>
    <vehicle id="565" depart="565.00">
        <route edges="4o 4fo"/>
    </vehicle>
    <vehicle id="570" depart="570.00">
        <route edges="2si 4o 4fo"/>
    </vehicle>
    <vehicle id="571" depart="571.00">
        <route edges="3o 3fo"/>
    </vehicle>
    <vehicle id="572" depart="572.00">
        <route edges="2si 3o 3fo"/>
    </vehicle>
    <vehicle id="574" depart="574.00">
        <route edges="3fi 3si 2o 2fo"/>
    </vehicle>
    <vehicle id="576" depart="576.00">
        <route edges="4o"/>
    </vehicle>
    <vehicle id="578" depart="578.00">
        <route edges="1si 2o 2fo"/>
    </vehicle>
    <vehicle id="580" depart="580.00">
        <route edges="1si 2o"/>
    </vehicle>
    <vehicle id="582" depart="582.00">
        <route edges="1fi 1si 4o 4fo"/>
    </vehicle>
    <vehicle id="583" depart="583.00">
        <route edges="4si 3o"/>
    </vehicle>
    <vehicle id="584" depart="584.00">
        <route edges="1si 4o 4fo"/>
    </vehicle>
    <vehicle id="587" depart="587.00">
        <route edges="1si 4o 4fo"/>
    </vehicle>
    <vehicle id="589" depart="589.00">
        <route edges="4o 4fo"/>
    </vehicle>
    <vehicle id="590" depart="590.00">
        <route edges="1fi 1si 4o 4fo"/>
    </vehicle>
    <vehicle id="595" depart="595.00">
        <route edges="2si 1o 1fo"/>
    </vehicle>
    <vehicle id="597" depart="597.00">
        <route edges="3si 4o 4fo"/>
    </vehicle>
    <vehicle id="605" depart="605.00">
        <route edges="4si 1o"/>
    </vehicle>
    <vehicle id="606" depart="606.00">
        <route edges="3fi 3si"/>
    </vehicle>
    <vehicle id="609" depart="609.00">
        <route edges="2o"/>
    </vehicle>
    <vehicle id="611" depart="611.00">
        <route edges="2o 2fo"/>
    </vehicle>
    <vehicle id="614" depart="614.00">
        <route edges="2fi 2si 4o 4fo"/>
    </vehicle>
    <vehicle id="615" depart="615.00">
        <route edges="4si 1o 1fo"/>
    </vehicle>
    <vehicle id="616" depart="616.00">
        <route edges="4o"/>
    </vehicle>
    <vehicle id="617" depart="617.00">
        <route edges="3fi 3si 2o 2fo"/>
    </vehicle>
    <vehicle id="619" depart="619.00">
        <route edges="4si 2o"/>
    </vehicle>
    <vehicle id="624" depart="624.00">
        <route edges="1fi 1si 4o"/>
    </vehicle>
    <vehicle id="625" depart="625.00">
        <route edges="4o"/>
    </vehicle>
    <vehicle id="627" depart="627.00">
        <route edges="4si 1o"/>
    </vehicle>
    <vehicle id="629" depart="629.00">
        <route edges="2si 4o 4fo"/>
    </vehicle>
    <vehicle id="630" depart="630.00">
        <route edges="2o 2fo"/>
    </vehicle>
    <vehicle id="632" depart="632.00">
        <route edges="4si 3o"/>
    </vehicle>
    <vehicle id="634" depart="634.00">
        <route edges="2o 2fo"/>
    </vehicle>
    <vehicle id="635" depart="635.00">
        <route edges="3fi 3si 4o"/>
    </vehicle>
    <vehicle id="641" depart="641.00">
        <route edges="1si 4o 4fo"/>
    </vehicle>
    <vehicle id="644" depart="644.00">
        <route edges="4si 2o 2fo"/>
    </vehicle>
    <vehicle id="645" depart="645.00">
        <route edges="3si 2o 2fo"/>
    </vehicle>
    <vehicle id="647" depart="647.00">
        <route edges="3o 3fo"/>
    </vehicle>
    <vehicle id="649" depart="649.00">
        <route edges="2fi 2si 1o 1fo"/>
    </vehicle>
    <vehicle id="651" depart="651.00">
        <route edges="4fi 4si 3o"/>
    </vehicle>
    <vehicle id="656" depart="656.00">
        <route edges="2fi 2si 3o"/>
    </vehicle>
    <vehicle id="658" depart="658.00">
        <route edges="2fi 2si"/>
    </vehicle>
    <vehicle id="660" depart="660.00">
        <route edges="3fi 3si"/>
    </vehicle>
    <vehicle id="662" depart="662.00">
        <route edges="3fi 3si 2o"/>
    </vehicle>
    <vehicle id="670" depart="670.00">
        <route edges="3si 1o"/>
    </vehicle>
    <vehicle id="671" depart="671.00">
        <route edges="3si 2o 2fo"/>
    </vehicle>
    <vehicle id="673" depart="673.00">
        <route edges="2o"/>
    </vehicle>
    <vehicle id="675" depart="675.00">
        <route edges="2fi 2si 3o"/>
    </vehicle>
    <vehicle id="676" depart="676.00">
        <route edges="1o 1fo"/>
    </vehicle>
    <vehicle id="677" depart="677.00">
        <route edges="1si 4o 4fo"/>
    </vehicle>
    <vehicle id="678" depart="678.00">
        <route edges="3si 4o 4fo"/>
    </vehicle>
    <vehicle id="679" depart="679.00">
        <route edges="4si"/>
    </vehicle>
    <vehicle id="680" depart="680.00">
        <route edges="2si 1o"/>
    </vehicle>
    <vehicle id="683" depart="683.00">
        <route edges="3si 2o 2fo"/>
    </vehicle>
    <vehicle id="685" depart="685.00">
        <route edges="1fi 1si 3o"/>
    </vehicle>
    <vehicle id="686" depart="686.00">
        <route edges="2si 3o"/>
    </vehicle>
    <vehicle id="687" depart="687.00">
        <route edges="1fi 1si 3o"/>
    </vehicle>
    <vehicle id="695" depart="695.00">
        <route edges="3o"/>
    </vehicle>
    <vehicle id="696" depart="696.00">
        <route edges="3si 4o 4fo"/>
    </vehicle>
    <vehicle id="702" depart="702.00">
        <route edges="3si 1o"/>
    </vehicle>
    <vehicle id="703" depart="703.00">
        <route edges="1si"/>
    </vehicle>
    <vehicle id="705" depart="705.00">
        <route edges="4fi 4si 2o 2fo"/>
    </vehicle>
    <vehicle id="706" depart="706.00">
        <route edges="2o"/>
    </vehicle>
    <vehicle id="707" depart="707.00">
        <route edges="1fi 1si 3o"/>
    </vehicle>
    <vehicle id="710" depart="710.00">
        <route edges="2fi 2si 4o 4fo"/>
    </vehicle>
    <vehicle id="713" depart="713.00">
        <route edges="3fi 3si 1o 1fo"/>
    </vehicle>
    <vehicle id="716" depart="716.00">
        <route edges="2si"/>
    </vehicle>
    <vehicle id="718" depart="718.00">
        <route edges="2si 3o 3fo"/>
    </vehicle>
    <vehicle id="720" depart="720.00">
        <route edges="2si 1o"/>
    </vehicle>
    <vehicle id="722" depart="722.00">
        <route edges="1o 1fo"/>
    </vehicle>
    <vehicle id="723" depart="723.00">
        <route edges="2fi 2si 3o"/>
    </vehicle>
    <vehicle id="724" depart="724.00">
        <route edges="3fi 3si 4o 4fo"/>
    </vehicle>
    <vehicle id="726" depart="726.00">
        <route edges="4fi 4si 1o"/>
    </vehicle>
    <vehicle id="727" depart="727.00">
        <route edges="1fi 1si 3o"/>
    </vehicle>
    <vehicle id="728" depart="728.00">
        <route edges="4si 2o"/>
    </vehicle>
    <vehicle id="730" depart="730.00">
        <route edges="1si 2o 2fo"/>
    </vehicle>
    <vehicle id="733" depart="733.00">
        <route edges="1fi 1si 2o 2fo"/>
    </vehicle>
    <vehicle id="736" depart="736.00">
        <route edges="2fi 2si 1o 1fo"/>
    </vehicle>
    <vehicle id="742" depart="742.00">
        <route edges="2o"/>
    </vehicle>